6
Properties=species:S:1:pos:R:3:initial_magmoms:R:1 pbc="F F F"
C        0.00000000       0.00000000       0.00000000       1.00000000
F        0.00000000       0.00000000       3.93401500       0.00000000
H        1.07731700       0.00000000       0.00000000       0.00000000
H       -0.53865900       0.93298400       0.00000000       0.00000000
H       -0.53865900      -0.93298400       0.00000000       0.00000000
Cl       0.00000000       0.00000000       5.56434500       0.00000000
