4
Properties=species:S:1:pos:R:3:initial_magmoms:R:1 pbc="F F F"
N        0.00000000       0.00000000       3.80432600       0.00000000
N        0.00000000       0.00000000       4.92488900       0.00000000
O        0.00000000       0.00000000       6.11193700       0.00000000
H        0.00000000       0.00000000       0.00000000       1.00000000
