4
Properties=species:S:1:pos:R:3:initial_magmoms:R:1 pbc="F F F"
H       -0.30328600      -1.93071200       0.00000000       1.00000000
O       -0.86100600      -0.62152600       0.00000000       0.00000000
N        0.00000000       0.25702700       0.00000000       0.00000000
N        1.02733300       0.72910400       0.00000000       0.00000000
