7

C       0.391783800842884      0.534412001206025      0.532869926226394
H       1.526564081614706      0.579599273152021      0.466495050922597
H      -0.176522919384327      1.382549249254081      0.652076087630513
H       0.097530136568289     -0.542298751393004      0.377357951059289
O       0.440091284730246      0.505856024483719      4.580530865374231
H      -0.380178311093258      0.700843639517065      4.344928874191959
H       0.445724027777290     -0.155313336189731      4.106467101311488
