7
Properties=species:S:1:pos:R:3 pbc="F F F"
C       -0.04642300       0.66306900       0.00000000
O       -0.04642300      -0.75506300       0.00000000
H        0.86059200      -1.05703900       0.00000000
H       -1.08695600       0.97593800       0.00000000
H        0.43814500       1.07159400      -0.88953900
H        0.43814500       1.07159400       0.88953900
F        0.00000000       0.00000000       5.00000000
