7
Properties=species:S:1:pos:R:3:initial_magmoms:R:1 pbc="F F F"
C       -1.21148700       0.00796800       0.00040700       0.00000000
O        1.29396500      -0.10869400       0.00013300       1.00000000
H        0.00947600      -0.11802000       0.00279900       0.00000000
H       -1.52552900      -0.23325000       1.01007000       0.00000000
H       -1.43066500       1.03323300      -0.27808200       0.00000000
H       -1.55271000      -0.71011400      -0.73770200       0.00000000
H        1.41663600       0.84989400      -0.00059100       0.00000000
