7

C       0.377452056683839      1.079180145677113      0.627192351352039
O      -0.034796758058074     -0.322349658388437      0.009805361159987
H      -0.533417553909736      0.777908548524349     -0.281586731033184
H       1.157477853010087     -0.440945979835249      0.522660459567899
H       0.541446334155624      1.535256951767983      1.567870433997500
H       0.805837252069164      1.373967698080599     -0.171866132479246
F       0.453835547579133      0.009581600830846      4.996163135902294
