6

Cl      0.577873510544930      0.499272232796131     -1.712809083338274
C      -0.001970417048410     -0.002907311590052     -0.578682849517931
H      -0.002191551490840      1.044449151366386     -0.231050431072723
H      -0.942215086079303     -0.551435686542217     -0.235746977492060
H       0.907226033969321     -0.533325593203464     -0.237663548381313
Cl      0.425241962546419      0.668831124154450      2.005723605927520
