4
Properties=species:S:1:pos:R:3:initial_magmoms:R:1 pbc="F F F"
H        1.26209700      -0.22009700       0.00000000       0.00000000
S        0.00000000       0.22315300       0.00000000       1.00000000
H       -0.50057600      -1.11544500       0.00000000       0.00000000
H       -0.76152100      -2.23491300       0.00000000       0.00000000
