6
Properties=species:S:1:pos:R:3 pbc="F F F"
F        0.00000000       0.00000000      -2.64853900
C        0.00000000       0.00000000      -1.24017000
H        0.00000000       1.02471900      -0.88640600
H       -0.88743200      -0.51235900      -0.88640600
H        0.88743200      -0.51235900      -0.88640600
Cl       0.00000000       0.00000000       1.99629900
